grid_simulations/EVs_4kw/Result_no_control/output_current_offpeak.csv
# Result_no_control/output_current_offpeak.csv run at 2000-01-01 00:01:00 EST on 907 links
link_name,currA_mag,currA_angle,currB_mag,currB_angle,currC_mag,currC_angle
Source_Impedance,0.166895,-0.384961,0.136221,3.824525,0.156510,1.889304
TR1,0.166895,-0.384961,0.136221,3.824525,0.156510,1.889304
LINE1,4.916990,-0.841189,3.888852,3.347451,3.307630,1.253214
LINE2,4.916990,-0.841189,3.888852,3.347451,3.307630,1.253214
LINE3,4.916990,-0.841189,3.888852,3.347451,3.307630,1.253214
LINE4,4.916990,-0.841189,3.888852,3.347451,3.307630,1.253214
LINE5,4.916990,-0.841189,3.888852,3.347451,3.307630,1.253214
LINE6,4.916990,-0.841189,3.888852,3.347451,3.307630,1.253214
LINE7,4.916990,-0.841189,3.888852,3.347451,3.307630,1.253214
LINE8,4.916990,-0.841189,3.888852,3.347451,3.307630,1.253214
LINE9,4.916990,-0.841189,3.888852,3.347451,3.307630,1.253214
LINE10,4.916990,-0.841189,3.888852,3.347451,3.307630,1.253214
LINE11,4.916990,-0.841189,3.888852,3.347451,3.307630,1.253214
LINE12,4.916990,-0.841189,3.888852,3.347451,3.307630,1.253214
LINE13,4.916990,-0.841189,3.888852,3.347451,3.307630,1.253214
LINE14,4.916990,-0.841189,3.888852,3.347451,3.307630,1.253214
LINE15,0.000000,-0.869086,0.000000,3.650369,0.000000,1.571727
LINE16,4.916990,-0.841189,3.888852,3.347451,3.307630,1.253214
LINE17,0.000000,-1.132081,0.000000,3.704663,0.000000,1.571358
LINE18,4.916990,-0.841189,3.888852,3.347451,3.307630,1.253214
LINE19,0.000000,0.000000,0.000000,3.361639,0.000000,1.576671
LINE20,4.916990,-0.841189,3.888852,3.347451,3.307630,1.253214
LINE21,0.000000,3.116661,0.000000,2.992306,0.000000,1.577784
LINE22,4.916990,-0.841189,3.888852,3.347451,3.307630,1.253214
LINE23,0.000000,-0.488580,0.000000,3.302009,0.000000,1.572930
LINE24,4.916990,-0.841189,3.888852,3.347451,3.307630,1.253214
LINE25,0.000000,-0.488580,0.000000,3.424714,0.000000,1.572863
LINE26,0.768293,-0.841294,0.000000,3.320822,0.000000,1.549041
LINE27,4.148697,-0.841170,3.888852,3.347451,3.307630,1.253214
LINE28,0.000000,-0.383703,0.000000,3.361639,0.000000,1.571792
LINE29,0.150316,-0.841297,0.000000,3.740689,0.000000,-1.458610
LINE30,0.617976,-0.841294,0.000000,3.321925,0.000000,1.551617
LINE31,4.148697,-0.841170,3.888852,3.347451,3.307630,1.253214
LINE32,0.000000,-0.256023,0.000000,3.376290,0.000000,1.573115
LINE33,0.150316,-0.841297,0.000000,-0.811566,0.000000,4.559029
LINE34,0.617976,-0.841294,0.000000,3.538517,0.000000,1.530228
LINE35,0.000000,2.372309,0.471831,3.347460,0.000000,1.574781
LINE36,4.148697,-0.841170,3.417021,3.347450,3.307630,1.253214
LINE37,0.000000,-0.287927,0.000000,3.327754,0.000000,1.576506
LINE38,0.617976,-0.841294,0.000000,4.009453,0.000000,1.617738
LINE39,0.000000,2.167845,0.233828,3.347460,0.000000,1.612887
LINE40,0.000000,3.096295,0.238003,3.347460,0.000000,4.671149
LINE41,4.148697,-0.841170,3.417021,3.347450,3.307630,1.253214
LINE42,0.000000,2.341566,0.000000,-0.133770,0.000000,4.609708
LINE43,0.000000,-0.190081,0.000000,3.281809,0.000000,1.577186
LINE44,0.617976,-0.841294,0.000000,3.089237,0.000000,4.607894
LINE45,0.000000,2.054208,0.233828,3.347460,0.000000,3.650091
LINE46,0.000000,2.913929,0.238003,3.347460,0.000000,-1.528868
LINE47,4.148697,-0.841170,3.417021,3.347450,3.307630,1.253214
LINE48,0.000000,2.352347,0.000000,-0.057453,0.000000,1.158836
LINE49,0.000000,-0.488580,0.000000,3.241016,0.000000,1.659629
LINE50,0.617976,-0.841294,0.000000,-0.045076,0.000000,4.711945
LINE51,0.000000,2.192510,0.233828,3.347460,0.000000,4.671365
LINE52,4.148697,-0.841170,3.417021,3.347450,3.307630,1.253214
LINE53,0.000000,0.069931,0.000000,0.382533,0.000000,4.406338
LINE54,0.000000,2.398727,0.000000,0.223252,0.000000,1.601069
LINE55,0.000000,-0.810330,0.000000,3.241016,0.000000,1.615656
LINE56,0.617976,-0.841294,0.000000,0.283986,0.000000,4.686715
LINE57,0.000000,1.863418,0.233828,3.347460,0.000000,4.643757
LINE58,4.148697,-0.841170,3.417021,3.347450,3.307630,1.253214
LINE59,0.000000,0.311895,0.000000,0.535074,0.000000,4.371709
LINE60,0.000000,2.401541,0.000000,0.142057,0.000000,1.568943
LINE61,0.000000,-0.612935,0.000000,3.179080,0.000000,1.617944
LINE62,0.617976,-0.841294,0.000000,0.882988,0.000000,-1.508913
LINE63,0.000000,2.323483,0.233828,3.347460,0.000000,4.689809
LINE64,3.559794,-0.841159,3.417021,3.347450,3.307630,1.253214
LINE65,0.588904,-0.841235,0.000000,-0.387157,0.000000,-0.650771
LINE66,0.000000,1.005368,0.000000,1.083001,0.000000,2.523114
LINE67,0.000000,2.059176,0.000000,0.257936,0.000000,1.910057
LINE68,0.000000,-0.269911,0.000000,3.216329,0.000000,1.647805
LINE69,0.617976,-0.841294,0.000000,3.512441,0.000000,2.068545
LINE70,0.000000,2.114925,0.233828,3.347460,0.000000,1.560815
LINE71,3.559794,-0.841159,3.417021,3.347450,3.307630,1.253214
LINE72,0.204654,-0.841236,0.000000,3.139525,0.000000,1.563345
LINE73,0.384250,-0.841235,0.000000,4.136661,0.000000,1.535921
LINE74,0.000000,0.546118,0.000000,1.416542,0.000000,2.206970
LINE75,0.000000,2.347236,0.000000,0.464663,0.000000,1.631660
LINE76,0.000000,-0.173822,0.000000,3.085421,0.000000,1.632742
LINE77,0.000000,1.538561,0.233828,3.347460,0.000000,1.559146
LINE78,3.559794,-0.841159,3.417021,3.347450,3.307630,1.253214
LINE79,0.000000,0.388701,0.000000,1.256787,0.000000,2.756022
LINE80,0.000000,2.387817,0.000000,0.367125,0.000000,1.554397
LINE81,0.000000,-0.190081,0.000000,3.101510,0.000000,1.625626
LINE82,0.000000,3.075999,0.233828,3.347460,0.000000,3.174181
LINE83,3.559794,-0.841159,3.417021,3.347450,3.307630,1.253214
LINE84,0.000000,-1.015030,0.000000,0.893256,0.000000,2.603115
LINE85,0.000000,2.373123,0.000000,0.346694,0.000000,1.613677
LINE86,0.000000,-0.139809,0.000000,3.116661,0.000000,1.620117
LINE87,3.559794,-0.841159,3.417021,3.347450,3.307630,1.253214
LINE88,0.000000,3.524613,0.000000,0.170018,0.000000,1.895199
LINE89,0.000000,2.379036,0.000000,0.346489,0.000000,1.618513
LINE90,0.000000,-0.124601,0.000000,3.149982,0.000000,1.617397
LINE91,3.559794,-0.841159,3.417021,3.347450,3.307630,1.253214
LINE92,0.000000,2.530079,0.000000,0.384555,0.000000,4.649392
LINE93,0.000000,-0.269911,0.000000,3.116661,0.000000,3.116661
LINE94,3.559794,-0.841159,3.417021,3.347450,3.307630,1.253214
LINE95,0.000000,2.241498,0.000000,0.493167,0.000000,4.641122
LINE96,0.000000,2.331263,0.000000,0.000000,0.000000,4.678180
LINE97,3.559794,-0.841159,3.417021,3.347450,3.307630,1.253214
LINE98,0.000000,2.857785,0.000000,-0.849848,0.000000,4.051734
LINE99,0.000000,1.545864,0.000000,4.687457,0.000000,4.710768
LINE100,3.559794,-0.841159,3.417021,3.347450,3.307630,1.253214
LINE101,0.000000,3.994691,0.000000,-0.134957,0.000000,3.869133
LINE102,0.000000,0.000000,0.000000,0.000000,0.000000,-0.024932
LINE103,0.363401,-0.841219,0.609759,3.347465,0.442637,1.253193
LINE104,3.196393,-0.841152,2.807263,3.347447,2.864993,1.253217
LINE105,0.000000,3.938504,0.000000,-0.039126,0.000000,4.151422
LINE106,0.363401,-0.841219,0.609759,3.347465,0.442637,1.253193
LINE107,3.196393,-0.841152,2.807263,3.347447,2.864993,1.253217
LINE108,0.000000,3.915978,0.000000,0.004745,0.000000,4.272339
LINE109,0.363401,-0.841219,0.609759,3.347465,0.442637,1.253193
LINE110,3.196393,-0.841152,2.807263,3.347447,2.864993,1.253217
LINE111,0.000000,3.955783,0.000000,0.032880,0.000000,4.279144
LINE112,0.363401,-0.841219,0.609759,3.347465,0.442637,1.253193
LINE113,3.196393,-0.841152,2.807263,3.347447,2.864993,1.253217
LINE114,0.000000,3.955083,0.000000,0.033188,0.000000,4.274138
LINE115,0.363401,-0.841219,0.609759,3.347465,0.442637,1.253193
LINE116,0.213035,-0.841214,0.371715,3.347471,0.455184,1.253202
LINE117,2.983358,-0.841148,2.435548,3.347443,2.409809,1.253220
LINE118,0.000000,3.959407,0.000000,0.035894,0.000000,4.275031
LINE119,0.363401,-0.841219,0.609759,3.347465,0.442637,1.253193
LINE120,0.000000,1.224114,0.000000,1.545864,0.000000,1.626439
LINE121,0.213035,-0.841214,0.371715,3.347471,0.455184,1.253202
LINE122,2.983358,-0.841148,2.435548,3.347443,2.409809,1.253220
LINE123,0.000000,3.904667,0.000000,-0.000912,0.000000,4.262109
LINE124,0.363401,-0.841219,0.609759,3.347465,0.442637,1.253193
LINE125,0.000000,0.957862,0.000000,1.545864,0.000000,1.624438
LINE126,0.213035,-0.841214,0.371715,3.347471,0.455184,1.253202
LINE127,2.983358,-0.841148,2.435548,3.347443,2.409809,1.253220
LINE128,0.000000,4.096555,0.000000,0.063956,0.000000,4.223524
LINE129,0.363401,-0.841219,0.609759,3.347465,0.442637,1.253193
LINE130,0.000000,1.224114,0.000000,0.438716,0.000000,3.116661
LINE131,0.213035,-0.841214,0.000000,2.876285,0.000000,-1.472507
LINE132,0.000000,4.174057,0.371715,3.347471,0.455184,1.253202
LINE133,2.983358,-0.841148,2.435548,3.347443,2.409809,1.253220
LINE134,0.000000,3.999621,0.000000,0.036754,0.000000,4.259086
LINE135,0.363401,-0.841219,0.609759,3.347465,0.442637,1.253193
LINE136,0.000000,0.871123,0.000000,0.871123,0.000000,1.627409
LINE137,0.213035,-0.841214,0.000000,2.842942,0.000000,-1.450022
LINE138,0.000000,4.173374,0.371715,3.347471,0.455184,1.253202
LINE139,2.983358,-0.841148,2.435548,3.347443,2.409809,1.253220
LINE140,0.000000,3.966340,0.000000,0.020821,0.000000,4.296897
LINE141,0.363401,-0.841219,0.609759,3.347465,0.442637,1.253193
LINE142,0.000000,1.267565,0.000000,0.355574,0.000000,3.116661
LINE143,0.213035,-0.841214,0.000000,2.907921,0.000000,-1.262110
LINE144,0.000000,4.165316,0.371715,3.347471,0.455184,1.253202
LINE145,2.983358,-0.841148,2.435548,3.347443,2.409809,1.253220
LINE146,0.000000,4.114888,0.000000,-0.018722,0.000000,4.367212
LINE147,0.363401,-0.841219,0.609759,3.347465,0.442637,1.253193
LINE148,0.000000,1.545864,0.000000,0.369859,0.000000,4.695834
LINE149,0.213035,-0.841214,0.000000,2.871825,0.000000,-1.390185
LINE150,0.000000,4.188367,0.000000,-0.962774,0.455184,1.253202
LINE151,0.000000,3.828859,0.371715,3.347471,0.000000,-1.559870
LINE152,2.983358,-0.841148,2.435548,3.347443,2.409809,1.253220
LINE153,0.000000,3.720657,0.000000,-0.507553,0.000000,4.469541
LINE154,0.363401,-0.841219,0.609759,3.347465,0.442637,1.253193
LINE155,0.000000,0.837238,0.000000,0.318092,0.000000,3.116661
LINE156,0.213035,-0.841214,0.000000,2.830956,0.000000,-1.455328
LINE157,0.000000,4.200180,0.000000,-0.957602,0.455184,1.253202
LINE158,0.000000,3.815330,0.371715,3.347471,0.000000,-1.548053
LINE159,2.983358,-0.841148,2.435548,3.347443,2.409809,1.253220
LINE160,0.000000,0.635315,0.000000,-0.791510,0.000000,4.043719
LINE161,0.000000,2.963757,0.204642,3.347465,0.000000,-1.569032
LINE162,0.363401,-0.841219,0.405116,3.347466,0.442637,1.253193
LINE163,0.000000,1.082217,0.000000,0.438716,0.000000,1.566918
LINE164,0.213035,-0.841214,0.000000,2.879564,0.000000,-1.352287
LINE165,0.000000,4.192855,0.000000,-0.950783,0.455184,1.253202
LINE166,0.000000,3.908758,0.371715,3.347471,0.000000,-1.542639
LINE167,2.983358,-0.841148,2.435548,3.347443,2.409809,1.253220
LINE168,0.000000,4.168614,0.000000,-0.256691,0.000000,2.588345
LINE169,0.000000,2.717380,0.204642,3.347465,0.000000,4.613242
LINE170,0.363401,-0.841219,0.405116,3.347466,0.442637,1.253193
LINE171,0.000000,0.438716,0.000000,0.618569,0.000000,1.600619
LINE172,0.213035,-0.841214,0.000000,2.798294,0.000000,-1.450963
LINE173,0.000000,4.235779,0.000000,-1.083106,0.000000,4.169381
LINE174,0.000000,2.120301,0.000000,-0.655479,0.455184,1.253202
LINE175,0.000000,3.557473,0.371715,3.347471,0.000000,-1.544507
LINE176,2.983358,-0.841148,2.435548,3.347443,2.409809,1.253220
LINE177,0.000000,2.484959,0.204642,3.347465,0.000000,4.440215
LINE178,0.363401,-0.841219,0.405116,3.347466,0.000000,-0.545531
LINE179,0.000000,-0.463795,0.000000,4.607863,0.442637,1.253193
LINE180,0.000000,-0.488580,0.000000,0.000000,0.000000,4.702349
LINE181,0.213035,-0.841214,0.000000,2.696054,0.000000,-1.414470
LINE182,0.000000,4.254743,0.000000,-1.125316,0.000000,4.197200
LINE183,0.000000,1.996134,0.000000,-0.653037,0.455184,1.253202
LINE184,0.000000,3.201550,0.371715,3.347471,0.000000,-1.560027
LINE185,2.983358,-0.841148,2.435548,3.347443,2.409809,1.253220
LINE186,0.363401,-0.841219,0.405116,3.347466,0.000000,-1.416053
LINE187,0.000000,-0.479991,0.000000,4.649132,0.442637,1.253193
LINE188,0.000000,0.000000,0.000000,0.438716,0.000000,-1.561013
LINE189,0.213035,-0.841214,0.000000,2.668341,0.000000,-1.480089
LINE190,0.000000,1.805757,0.000000,1.492552,0.000000,4.604199
LINE191,0.000000,4.239893,0.000000,4.386680,0.000000,4.518429
LINE192,0.000000,1.974838,0.000000,-0.632537,0.455184,1.253202
LINE193,0.000000,3.095453,0.371715,3.347471,0.000000,-1.557445
LINE194,2.983358,-0.841148,2.435548,3.347443,2.409809,1.253220
LINE195,0.363401,-0.841219,0.405116,3.347466,0.000000,-1.468445
LINE196,0.000000,1.398286,0.000000,2.565027,0.221318,1.253193
LINE197,0.000000,-0.445948,0.000000,-1.550121,0.221319,1.253194
LINE198,0.000000,1.545864,0.000000,0.438716,0.000000,-1.558392
LINE199,0.213035,-0.841214,0.000000,2.702485,0.000000,-1.414472
LINE200,0.000000,1.247549,0.000000,1.247549,0.000000,4.557727
LINE201,0.000000,4.241012,0.000000,-0.727228,0.000000,-1.211124
LINE202,0.000000,2.267510,0.000000,-0.492836,0.455184,1.253202
LINE203,0.000000,3.291129,0.371715,3.347471,0.000000,-1.556174
LINE204,2.983358,-0.841148,2.435548,3.347443,2.409809,1.253220
LINE205,0.363401,-0.841219,0.000000,-0.823509,0.000000,4.430482
LINE206,0.000000,2.009337,0.405116,3.347466,0.000000,-1.546249
LINE207,0.000000,2.379482,0.000000,2.379482,0.221318,1.253193
LINE208,0.000000,-0.421247,0.000000,-1.334497,0.221319,1.253194
LINE209,0.000000,1.545864,0.000000,0.760466,0.000000,-1.546756
LINE210,0.213035,-0.841214,0.000000,2.713907,0.000000,-1.449935
LINE211,0.000000,3.928683,0.000000,-0.725786,0.000000,-0.981701
LINE212,0.000000,2.438883,0.000000,-0.388793,0.455184,1.253202
LINE213,0.000000,3.327239,0.371715,3.347471,0.000000,-1.565112
LINE214,2.983358,-0.841148,2.435548,3.347443,2.409809,1.253220
LINE215,0.363401,-0.841219,0.000000,0.716310,0.000000,1.831852
LINE216,0.000000,1.736091,0.405116,3.347466,0.000000,-1.502058
LINE217,0.000000,-0.441449,0.000000,4.416126,0.221319,1.253194
LINE218,0.000000,0.000000,0.000000,1.545864,0.000000,3.116661
LINE219,0.213035,-0.841214,0.000000,2.701642,0.000000,-1.436999
LINE220,0.000000,4.114751,0.000000,3.201263,0.000000,-1.470029
LINE221,0.000000,2.461645,0.000000,-0.378321,0.455184,1.253202
LINE222,0.000000,3.398497,0.371715,3.347471,0.000000,4.699464
LINE223,2.983358,-0.841148,2.435548,3.347443,2.409809,1.253220
LINE224,0.363401,-0.841219,0.000000,0.302848,0.000000,4.668439
LINE225,0.000000,2.651742,0.405116,3.347466,0.000000,-1.258383
LINE226,0.000000,-0.394659,0.000000,4.442193,0.221319,1.253194
LINE227,0.213035,-0.841214,0.000000,2.578877,0.000000,-1.488453
LINE228,0.000000,3.843491,0.000000,3.902905,0.000000,-1.280961
LINE229,0.000000,2.421360,0.000000,-0.370631,0.455184,1.253202
LINE230,0.000000,3.388810,0.371715,3.347471,0.000000,4.705575
LINE231,2.983358,-0.841148,2.435548,3.347443,2.409809,1.253220
LINE232,0.000000,-0.028714,0.405116,3.347466,0.000000,1.609583
LINE233,0.000000,0.614841,0.000000,1.414880,0.000000,1.060504
LINE234,0.000000,-0.153297,0.000000,4.293968,0.221319,1.253194
LINE235,0.213035,-0.841214,0.000000,2.747890,0.000000,4.694358
LINE236,0.000000,4.638355,0.000000,3.997040,0.000000,1.118313
LINE237,0.000000,2.463158,0.000000,-0.438429,0.455184,1.253202
LINE238,0.000000,3.284524,0.371715,3.347471,0.000000,-1.546109
LINE239,2.983358,-0.841148,2.435548,3.347443,2.409809,1.253220
LINE240,0.000000,-0.224460,0.405116,3.347466,0.000000,1.549436
LINE241,0.000000,0.083424,0.000000,-0.016590,0.221319,1.253194
LINE242,0.213035,-0.841214,0.000000,3.241779,0.000000,-1.282657
LINE243,0.000000,4.530356,0.000000,3.414585,0.000000,-0.222160
LINE244,0.000000,2.724763,0.000000,-0.385219,0.455184,1.253202
LINE245,0.000000,2.958092,0.371715,3.347471,0.000000,-1.539172
LINE246,2.983358,-0.841148,2.435548,3.347443,2.409809,1.253220
LINE247,0.000000,0.529557,0.200470,3.347466,0.000000,4.642244
LINE248,0.000000,2.690141,0.204646,3.347466,0.000000,4.635557
LINE249,0.000000,-0.085926,0.000000,-0.104436,0.221319,1.253194
LINE250,0.213035,-0.841214,0.000000,1.911597,0.000000,-1.549866
LINE251,0.000000,-1.107840,0.000000,2.979468,0.000000,0.115218
LINE252,0.000000,2.627402,0.000000,-0.372231,0.455184,1.253202
LINE253,0.000000,2.946467,0.371715,3.347471,0.000000,-1.535335
LINE254,0.213058,-0.841204,0.000000,0.356068,0.000000,1.418542
LINE255,2.770300,-0.841143,2.435548,3.347443,2.409809,1.253220
LINE256,0.000000,0.058810,0.000000,3.612227,0.221319,1.253194
LINE257,0.213035,-0.841214,0.000000,2.631891,0.000000,4.625146
LINE258,0.000000,2.348428,0.000000,4.021998,0.000000,0.867880
LINE259,0.000000,2.675655,0.000000,-0.387198,0.455184,1.253202
LINE260,0.000000,3.015668,0.371715,3.347471,0.000000,-1.516417
LINE261,0.213058,-0.841204,0.000000,0.343269,0.000000,1.466567
LINE262,2.770300,-0.841143,2.435548,3.347443,2.409809,1.253220
LINE263,0.000000,0.925040,0.000000,3.030385,0.221319,1.253194
LINE264,0.213035,-0.841214,0.000000,-0.062531,0.000000,2.763889
LINE265,0.000000,-0.444907,0.000000,3.453369,0.000000,1.692956
LINE266,0.000000,2.630572,0.000000,-0.378359,0.455184,1.253202
LINE267,0.000000,2.771535,0.183769,3.347472,0.000000,4.614692
LINE268,0.000000,2.938448,0.187945,3.347471,0.000000,-1.567996
LINE269,0.213058,-0.841204,0.000000,0.406348,0.000000,1.502049
LINE270,0.000000,-0.510831,0.000000,-0.159397,0.208811,1.253217
LINE271,2.770300,-0.841143,2.435548,3.347443,2.200999,1.253221
LINE272,0.213035,-0.841214,0.000000,-0.004879,0.000000,-1.484043
LINE273,0.000000,-0.411614,0.000000,4.249723,0.000000,1.570788
LINE274,0.000000,2.914269,0.000000,-0.259789,0.455184,1.253202
LINE275,0.000000,2.698742,0.183769,3.347472,0.000000,4.599456
LINE276,0.000000,3.125804,0.187945,3.347471,0.000000,-1.566211
LINE277,0.213058,-0.841204,0.000000,0.342017,0.000000,1.388429
LINE278,0.000000,-0.827835,0.000000,-0.144728,0.208811,1.253217
LINE279,2.770300,-0.841143,2.435548,3.347443,2.200999,1.253221
LINE280,0.213035,-0.841214,0.000000,3.625072,0.000000,-1.435218
LINE281,0.000000,0.799254,0.000000,-1.136022,0.000000,1.503597
LINE282,0.000000,2.930318,0.000000,-0.231967,0.455184,1.253202
LINE283,0.000000,3.094302,0.187945,3.347471,0.000000,4.708315
LINE284,0.213058,-0.841204,0.000000,0.346519,0.000000,-1.355868
LINE285,0.000000,-1.128062,0.000000,-1.032090,0.208811,1.253217
LINE286,1.278597,-0.841132,0.822976,3.347424,0.442678,1.253223
LINE287,1.491704,-0.841153,1.612572,3.347452,1.758320,1.253220
LINE288,0.213035,-0.841214,0.000000,4.259331,0.000000,1.307918
LINE289,0.000000,3.105374,0.000000,1.804834,0.000000,2.150303
LINE290,0.000000,4.651485,0.000000,0.645808,0.225504,1.253203
LINE291,0.000000,3.291619,0.000000,-0.444535,0.229679,1.253202
LINE292,0.000000,2.536987,0.187945,3.347471,0.000000,-1.538451
LINE293,0.213058,-0.841204,0.000000,0.287056,0.000000,-0.123524
LINE294,0.000000,-0.893957,0.000000,-0.927797,0.208811,1.253217
LINE295,1.278597,-0.841132,0.822976,3.347424,0.442678,1.253223
LINE296,1.491704,-0.841153,1.612572,3.347452,1.758320,1.253220
LINE297,0.000000,-0.592558,0.000000,0.833841,0.225504,1.253203
LINE298,0.000000,-1.448017,0.000000,-0.604047,0.229679,1.253202
LINE299,0.000000,0.236476,0.187945,3.347471,0.000000,-1.552320
LINE300,0.213058,-0.841204,0.000000,0.281300,0.000000,0.089162
LINE301,0.000000,-0.953136,0.000000,-1.214724,0.208811,1.253217
LINE302,1.278597,-0.841132,0.822976,3.347424,0.442678,1.253223
LINE303,1.491704,-0.841153,1.612572,3.347452,1.758320,1.253220
LINE304,0.000000,-0.959298,0.000000,0.820060,0.225504,1.253203
LINE305,0.000000,4.464458,0.000000,-0.278964,0.229679,1.253202
LINE306,0.000000,2.597794,0.187945,3.347471,0.000000,0.047677
LINE307,0.213058,-0.841204,0.000000,0.377954,0.000000,0.861612
LINE308,0.000000,-0.824441,0.000000,4.377944,0.208811,1.253217
LINE309,1.278597,-0.841132,0.822976,3.347424,0.442678,1.253223
LINE310,1.491704,-0.841153,1.612572,3.347452,1.758320,1.253220
LINE311,0.000000,0.288483,0.000000,2.305574,0.225504,1.253203
LINE312,0.000000,3.221414,0.000000,0.504172,0.229679,1.253202
LINE313,0.000000,4.366649,0.187945,3.347471,0.000000,1.658033
LINE314,0.213058,-0.841204,0.000000,0.363168,0.000000,1.295042
LINE315,0.000000,-1.079974,0.000000,4.484111,0.208811,1.253217
LINE316,0.259026,-0.841191,0.000000,3.798745,0.000000,4.665271
LINE317,1.019571,-0.841117,0.822976,3.347424,0.442678,1.253223
LINE318,1.491704,-0.841153,1.612572,3.347452,1.758320,1.253220
LINE319,0.000000,-0.688647,0.000000,1.393954,0.225504,1.253203
LINE320,0.000000,2.955984,0.000000,0.870988,0.229679,1.253202
LINE321,0.213058,-0.841204,0.000000,0.434508,0.000000,1.341229
LINE322,0.000000,-0.840303,0.000000,-0.788138,0.208811,1.253217
LINE323,0.259026,-0.841191,0.000000,3.686555,0.000000,4.665083
LINE324,1.019571,-0.841117,0.822976,3.347424,0.442678,1.253223
LINE325,1.491704,-0.841153,1.612572,3.347452,1.758320,1.253220
LINE326,0.000000,-0.041178,0.000000,0.667194,0.229679,1.253202
LINE327,0.213058,-0.841204,0.000000,0.437140,0.000000,-0.969220
LINE328,0.000000,-0.529701,0.000000,-1.169430,0.208811,1.253217
LINE329,0.259026,-0.841191,0.000000,3.811492,0.000000,4.663657
LINE330,0.000000,-0.006656,0.000000,3.385412,0.225517,1.253224
LINE331,1.019571,-0.841117,0.822976,3.347424,0.217161,1.253223
LINE332,1.491704,-0.841153,1.612572,3.347452,1.758320,1.253220
LINE333,0.213058,-0.841204,0.000000,0.648110,0.000000,-1.248807
LINE334,0.000000,3.502733,0.000000,2.708507,0.208811,1.253217
LINE335,0.259026,-0.841191,0.000000,3.803465,0.000000,4.664004
LINE336,0.000000,-1.401869,0.000000,2.834697,0.225517,1.253224
LINE337,0.000000,-0.145951,0.225566,3.347441,0.000000,2.473317
LINE338,1.019571,-0.841117,0.597410,3.347417,0.217161,1.253223
LINE339,1.491704,-0.841153,1.612572,3.347452,1.758320,1.253220
LINE340,0.213058,-0.841204,0.000000,0.637153,0.000000,-0.754872
LINE341,0.000000,-0.224966,0.000000,3.199324,0.208811,1.253217
LINE342,0.142046,-0.841191,0.000000,4.190357,0.000000,-1.475706
LINE343,0.116980,-0.841191,0.000000,3.892076,0.000000,4.663106
LINE344,0.000000,-0.145028,0.225566,3.347441,0.000000,2.582577
LINE345,1.019571,-0.841117,0.597410,3.347417,0.217161,1.253223
LINE346,1.491704,-0.841153,1.612572,3.347452,1.758320,1.253220
LINE347,0.213058,-0.841204,0.000000,0.777858,0.000000,-1.328045
LINE348,0.142046,-0.841191,0.000000,1.709906,0.000000,1.482212
LINE349,0.116980,-0.841191,0.000000,4.666143,0.000000,4.690530
LINE350,0.000000,-0.142351,0.225566,3.347441,0.000000,3.607104
LINE351,1.019571,-0.841117,0.597410,3.347417,0.217161,1.253223
LINE352,1.491704,-0.841153,1.612572,3.347452,1.758320,1.253220
LINE353,0.213058,-0.841204,0.000000,0.552533,0.000000,1.446536
LINE354,0.116980,-0.841191,0.000000,3.347303,0.000000,4.683961
LINE355,0.000000,-0.092508,0.225566,3.347441,0.000000,-1.560761
LINE356,1.019571,-0.841117,0.597410,3.347417,0.217161,1.253223
LINE357,1.491704,-0.841153,1.612572,3.347452,1.758320,1.253220
LINE358,0.213058,-0.841204,0.000000,0.473817,0.000000,1.380809
LINE359,0.116980,-0.841191,0.000000,-1.160796,0.000000,4.668206
LINE360,0.000000,0.284045,0.225566,3.347441,0.000000,4.620526
LINE361,1.019571,-0.841117,0.597410,3.347417,0.217161,1.253223
LINE362,1.491704,-0.841153,1.612572,3.347452,1.758320,1.253220
LINE363,0.213058,-0.841203,0.000000,1.270531,0.000000,-1.401542
LINE364,0.116980,-0.841191,0.000000,3.174864,0.000000,4.669045
LINE365,0.000000,-0.161623,0.225566,3.347441,0.000000,4.553685
LINE366,1.019571,-0.841117,0.597410,3.347417,0.217161,1.253223
LINE367,1.491704,-0.841153,1.612572,3.347452,1.758320,1.253220
LINE368,0.213058,-0.841203,0.000000,3.394375,0.000000,1.556298
LINE369,0.116980,-0.841191,0.000000,2.950020,0.000000,4.675655
LINE370,0.000000,0.220423,0.225566,3.347441,0.000000,4.536613
LINE371,1.019571,-0.841117,0.597410,3.347417,0.217161,1.253223
LINE372,1.491704,-0.841153,1.612572,3.347452,1.758320,1.253220
LINE373,0.213058,-0.841203,0.000000,2.943243,0.000000,4.645089
LINE374,0.116980,-0.841191,0.000000,2.928348,0.000000,2.238966
LINE375,0.000000,-0.058455,0.225566,3.347441,0.000000,4.233522
LINE376,1.019571,-0.841117,0.597410,3.347417,0.217161,1.253223
LINE377,1.491704,-0.841153,1.612572,3.347452,1.532797,1.253220
LINE378,0.000000,4.072834,0.000000,0.116546,0.225523,1.253221
LINE379,0.213058,-0.841203,0.000000,0.023096,0.000000,-1.482968
LINE380,0.116980,-0.841191,0.000000,3.382464,0.000000,4.664829
LINE381,0.000000,0.593472,0.225566,3.347441,0.000000,3.998032
LINE382,1.019571,-0.841117,0.597410,3.347417,0.217161,1.253223
LINE383,1.491704,-0.841153,1.612572,3.347452,1.532797,1.253220
LINE384,0.000000,4.472113,0.000000,3.922013,0.225523,1.253221
LINE385,0.000000,3.465939,0.000000,0.190583,0.000000,4.618881
LINE386,0.213058,-0.841203,0.000000,0.344842,0.000000,1.511263
LINE387,0.116980,-0.841191,0.000000,0.271499,0.000000,0.479336
LINE388,0.000000,0.445971,0.225566,3.347441,0.000000,1.428235
LINE389,1.019571,-0.841117,0.597410,3.347417,0.217161,1.253223
LINE390,1.491704,-0.841153,1.612572,3.347452,1.532797,1.253220
LINE391,0.000000,4.419638,0.000000,3.901553,0.225523,1.253221
LINE392,0.000000,3.977519,0.000000,0.195424,0.000000,4.618340
LINE393,0.000000,2.156654,0.225566,3.347441,0.000000,1.390695
LINE394,1.019571,-0.841117,0.597410,3.347417,0.217161,1.253223
LINE395,0.000000,3.774657,0.000000,-0.924286,0.471938,1.253223
LINE396,1.491704,-0.841153,1.612572,3.347452,1.060859,1.253218
LINE397,0.000000,3.886990,0.000000,3.886990,0.225523,1.253221
LINE398,0.000000,-0.587884,0.000000,0.195476,0.000000,4.627025
LINE399,0.000000,0.808998,0.225566,3.347441,0.000000,4.669485
LINE400,1.019571,-0.841117,0.597410,3.347417,0.217161,1.253223
LINE401,0.000000,3.592703,0.000000,-0.855146,0.471938,1.253223
LINE402,1.491704,-0.841153,1.612572,3.347452,1.060859,1.253218
LINE403,0.000000,3.650275,0.000000,4.252252,0.225523,1.253221
LINE404,0.000000,-0.740010,0.000000,0.056872,0.000000,4.595340
LINE405,0.000000,1.805257,0.225566,3.347441,0.000000,1.470960
LINE406,1.019571,-0.841117,0.597410,3.347417,0.217161,1.253223
LINE407,0.000000,3.622392,0.000000,-0.804019,0.471938,1.253223
LINE408,1.491704,-0.841153,1.612572,3.347452,1.060859,1.253218
LINE409,0.000000,-0.272804,0.000000,3.136976,0.000000,0.722099
LINE410,0.000000,3.631809,0.000000,-0.558494,0.225523,1.253221
LINE411,0.000000,4.441926,0.000000,0.207441,0.000000,4.564186
LINE412,1.019571,-0.841117,0.597410,3.347417,0.217161,1.253223
LINE413,0.000000,3.422687,0.000000,-0.957984,0.471938,1.253223
LINE414,1.491704,-0.841153,1.612572,3.347452,1.060859,1.253218
LINE415,0.000000,-0.263481,0.000000,3.185996,0.000000,0.789160
LINE416,0.000000,3.608124,0.000000,-0.004398,0.225523,1.253221
LINE417,0.000000,3.437824,0.000000,0.177429,0.000000,4.557624
LINE418,1.019571,-0.841117,0.597410,3.347417,0.217161,1.253223
LINE419,0.000000,3.504849,0.000000,-1.274947,0.471938,1.253223
LINE420,1.491704,-0.841153,1.612572,3.347452,1.060859,1.253218
LINE421,0.000000,-0.348599,0.000000,3.254776,0.000000,0.574217
LINE422,0.000000,3.405905,0.000000,0.027856,0.225523,1.253221
LINE423,0.000000,-1.272708,0.000000,0.272932,0.000000,4.561711
LINE424,1.019571,-0.841117,0.597410,3.347417,0.217161,1.253223
LINE425,0.000000,3.456608,0.000000,-0.936371,0.000000,-0.823171
LINE426,0.000000,3.282886,0.000000,-1.121356,0.471938,1.253223
LINE427,1.491704,-0.841153,1.612572,3.347452,1.060859,1.253218
LINE428,0.000000,-0.237493,0.000000,3.313402,0.000000,0.756804
LINE429,0.000000,3.144752,0.000000,0.422770,0.225523,1.253221
LINE430,0.000000,-1.504822,0.000000,0.297191,0.000000,4.562666
LINE431,1.019571,-0.841117,0.597410,3.347417,0.217161,1.253223
LINE432,0.000000,-1.514738,0.000000,0.572972,0.000000,4.125795
LINE433,0.000000,3.294814,0.000000,-1.185122,0.471938,1.253223
LINE434,1.491704,-0.841153,1.612572,3.347452,1.060859,1.253218
LINE435,0.000000,-0.171171,0.000000,3.374863,0.000000,0.459624
LINE436,0.000000,3.321842,0.000000,0.491420,0.225523,1.253221
LINE437,0.000000,4.565593,0.000000,0.446224,0.000000,4.556513
LINE438,1.019571,-0.841117,0.597410,3.347417,0.217161,1.253223
LINE439,0.000000,2.705321,0.000000,2.579660,0.000000,1.559023
LINE440,0.000000,3.284019,0.000000,-1.353714,0.471938,1.253223
LINE441,1.491704,-0.841153,1.612572,3.347452,1.060859,1.253218
LINE442,0.000000,-0.313382,0.000000,3.432968,0.000000,0.643629
LINE443,0.000000,3.002278,0.000000,0.386864,0.225523,1.253221
LINE444,0.000000,4.575015,0.000000,0.397141,0.000000,4.561908
LINE445,1.019571,-0.841117,0.597410,3.347417,0.217161,1.253223
LINE446,0.000000,3.533572,0.000000,2.543030,0.000000,4.565613
LINE447,0.000000,3.227579,0.000000,-1.267810,0.471938,1.253223
LINE448,1.491704,-0.841153,1.612572,3.347452,1.060859,1.253218
LINE449,0.000000,-0.162595,0.000000,3.386127,0.000000,-0.069707
LINE450,0.000000,3.185001,0.000000,0.967267,0.225523,1.253221
LINE451,0.000000,3.493623,0.000000,0.364363,0.000000,4.570265
LINE452,1.019571,-0.841117,0.597410,3.347417,0.217161,1.253223
LINE453,0.000000,-1.506732,0.000000,-1.506732,0.000000,2.004392
LINE454,0.000000,3.280181,0.000000,-1.558117,0.471938,1.253223
LINE455,1.491704,-0.841153,1.612572,3.347452,1.060859,1.253218
LINE456,0.000000,-0.249949,0.000000,3.445291,0.000000,-0.240416
LINE457,0.000000,2.632383,0.000000,3.204508,0.225523,1.253221
LINE458,0.000000,3.336494,0.000000,0.476965,0.000000,4.591761
LINE459,0.819006,-0.841114,0.597410,3.347417,0.217161,1.253223
LINE460,0.000000,2.571662,0.000000,-0.736333,0.000000,4.705936
LINE461,0.200564,-0.841133,0.000000,1.194921,0.000000,4.647480
LINE462,0.000000,3.250003,0.000000,-1.334699,0.471938,1.253223
LINE463,1.491704,-0.841153,1.612572,3.347452,1.060859,1.253218
LINE464,0.000000,-0.575476,0.000000,3.600672,0.000000,-0.510605
LINE465,0.000000,3.292094,0.000000,0.477338,0.000000,4.624373
LINE466,0.819006,-0.841114,0.597410,3.347417,0.217161,1.253223
LINE467,0.000000,4.330105,0.000000,-0.186399,0.000000,1.720634
LINE468,0.000000,3.165550,0.000000,-1.038161,0.000000,1.923147
LINE469,0.200564,-0.841133,0.000000,1.274839,0.000000,4.645183
LINE470,0.000000,3.217932,0.000000,-1.376476,0.471938,1.253223
LINE471,1.491704,-0.841153,1.612572,3.347452,1.060859,1.253218
LINE472,0.000000,-0.309905,0.000000,3.350330,0.000000,-0.429596
LINE473,0.000000,3.168279,0.000000,0.514087,0.000000,4.634814
...